/*---------------------------------------------------------------------------*\
| =========                 |                                                 |
| \\      /  F ield         | OpenFOAM: The Open Source CFD Toolbox           |
|  \\    /   O peration     | Version:  2312                                  |
|   \\  /    A nd           | Website:  www.openfoam.com                      |
|    \\/     M anipulation  |                                                 |
\*---------------------------------------------------------------------------*/
Build  : _c39a0f64-20231220 OPENFOAM=2312 version=2312
Arch   : "LSB;label=32;scalar=64"
Exec   : checkMesh
Date   : Apr 09 2024
Time   : 17:10:12
Host   : lizzi-Latitude-5330
PID    : 58711
I/O    : uncollated
Case   : /home/lizzi/Shunt-Optimisation/HT2024/porousModelPaper/ventricularCatheter
nProcs : 1
trapFpe: Floating point exception trapping enabled (FOAM_SIGFPE).
fileModificationChecking : Monitoring run-time modified files using timeStampMaster (fileModificationSkew 5, maxFileModificationPolls 20)
allowSystemOperations : Allowing user-supplied system call operations

// * * * * * * * * * * * * * * * * * * * * * * * * * * * * * * * * * * * * * //
Create time

Create mesh for time = 0

Check mesh...

Time = 0

Mesh stats 
    points:           3232062
    faces:            3776376
    internal faces:   3618446
    cells:            544724
    faces per cell:   13.5754
    boundary patches: 5
    point zones:      0
    face zones:       0
    cell zones:       1

Overall number of cells of each type:
    hexahedra:     117
    prisms:        0
    wedges:        0
    pyramids:      0
    tet wedges:    0
    tetrahedra:    0
    polyhedra:     544607
    Breakdown of polyhedra by number of faces:
        faces   number of cells
            6   18
            7   2328
            8   14252
            9   37269
           10   52327
           11   45527
           12   42342
           13   55157
           14   70476
           15   73356
           16   62598
           17   43704
           18   24997
           19   12123
           20   5175
           21   1900
           22   698
           23   224
           24   85
           25   39
           26   7
           27   3
           29   2

Checking topology...
    Boundary definition OK.
    Cell to face addressing OK.
    Point usage OK.
    Upper triangular ordering OK.
    Face vertices OK.
    Number of regions: 1 (OK).

Checking patch topology for multiply connected surfaces...
                   Patch    Faces   Points  Surface topology
                   walls   127380   253793  ok (non-closed singly connected)
                backWall      222      439  ok (non-closed singly connected)
             domainInlet    26480    52962  ok (non-closed singly connected)
            domainOutlet     3615     7232  ok (non-closed singly connected)
                  outlet      233      459  ok (non-closed singly connected)
                    ".*"   157930   313617      ok (closed singly connected)


Checking faceZone topology for multiply connected surfaces...
    No faceZones found.

Checking basic cellZone addressing...
                CellZone        Cells       Points       VolumeBoundingBox
                  fluid            0            0            0 (1e+150 1e+150 1e+150) (-1e+150 -1e+150 -1e+150)

Checking basic pointZone addressing...
    No pointZones found.

Checking geometry...
    Overall domain bounding box (-4.12346 0 0) (4.12346 6.00143 35)
    Mesh has 3 geometric (non-empty/wedge) directions (1 1 1)
    Mesh has 3 solution (non-empty) directions (1 1 1)
    Boundary openness (2.47694e-17 1.14394e-16 4.14683e-16) OK.
    Max cell openness = 2.72034e-16 OK.
    Max aspect ratio = 28.2957 OK.
    Minimum face area = 1.72315e-05. Maximum face area = 0.0325412.  Face area magnitudes OK.
    Min volume = 7.93167e-06. Max volume = 0.0125179.  Total volume = 1214.64.  Cell volumes OK.
    Mesh non-orthogonality Max: 66.1192 average: 13.1462
    Non-orthogonality check OK.
 ***Error in face pyramids: 714 faces are incorrectly oriented.
  <<Writing 714 faces with incorrect orientation to set wrongOrientedFaces
 ***Max skewness = 4.55942, 2 highly skew faces detected which may impair the quality of the results
  <<Writing 2 skew faces to set skewFaces
    Coupled point location match (average 0) OK.

Failed 2 mesh checks.

End

