/*---------------------------------------------------------------------------*\
| =========                 |                                                 |
| \\      /  F ield         | OpenFOAM: The Open Source CFD Toolbox           |
|  \\    /   O peration     | Version:  2312                                  |
|   \\  /    A nd           | Website:  www.openfoam.com                      |
|    \\/     M anipulation  |                                                 |
\*---------------------------------------------------------------------------*/
Build  : _e651d635-20240208 OPENFOAM=2312 patch=240220 version=2312
Arch   : "LSB;label=32;scalar=64"
Exec   : checkMesh
Date   : Aug 07 2024
Time   : 14:13:50
Host   : lizzi-Latitude-5330
PID    : 66487
I/O    : uncollated
Case   : /home/lizzi/Porous-model-paper/nondimensional/newInvestigation/runrh=0.3,numAx=1,numSec=3
nProcs : 1
trapFpe: Floating point exception trapping enabled (FOAM_SIGFPE).
fileModificationChecking : Monitoring run-time modified files using timeStampMaster (fileModificationSkew 5, maxFileModificationPolls 20)
allowSystemOperations : Allowing user-supplied system call operations

// * * * * * * * * * * * * * * * * * * * * * * * * * * * * * * * * * * * * * //
Create time

Create mesh for time = 0

Check mesh...

Time = 0

Mesh stats 
    points:           89809
    faces:            105830
    internal faces:   96261
    cells:            16163
    faces per cell:   12.5033
    boundary patches: 4
    point zones:      0
    face zones:       0
    cell zones:       1

Overall number of cells of each type:
    hexahedra:     32
    prisms:        0
    wedges:        0
    pyramids:      0
    tet wedges:    0
    tetrahedra:    0
    polyhedra:     16131
    Breakdown of polyhedra by number of faces:
        faces   number of cells
            6   2
            7   423
            8   1198
            9   2000
           10   2311
           11   1819
           12   1266
           13   981
           14   1113
           15   1194
           16   1163
           17   1057
           18   800
           19   451
           20   233
           21   80
           22   27
           23   8
           24   3
           25   2

Checking topology...
    Boundary definition OK.
    Cell to face addressing OK.
    Point usage OK.
    Upper triangular ordering OK.
    Face vertices OK.
    Number of regions: 1 (OK).

Checking patch topology for multiply connected surfaces...
                   Patch    Faces   Points  Surface topology
                   walls     9043    17773  ok (non-closed singly connected)
                  outlet      195      358  ok (non-closed singly connected)
                backWall      190      346  ok (non-closed singly connected)
                   inlet      141      246  ok (non-closed singly connected)
                    ".*"     9569    18517      ok (closed singly connected)


Checking faceZone topology for multiply connected surfaces...
    No faceZones found.

Checking basic cellZone addressing...
                CellZone        Cells       Points       VolumeBoundingBox
                  fluid            0            0            0 (1e+150 1e+150 1e+150) (-1e+150 -1e+150 -1e+150)

Checking basic pointZone addressing...
    No pointZones found.

Checking geometry...
    Overall domain bounding box (-0.879557 -1.23241 0) (1.25 1.23241 30)
    Mesh has 3 geometric (non-empty/wedge) directions (1 1 1)
    Mesh has 3 solution (non-empty) directions (1 1 1)
    Boundary openness (-1.69496e-17 5.3792e-18 -1.17343e-18) OK.
    Max cell openness = 2.14589e-16 OK.
    Max aspect ratio = 5.60537 OK.
    Minimum face area = 0.000485236. Maximum face area = 0.0393937.  Face area magnitudes OK.
    Min volume = 0.000142005. Max volume = 0.0131041.  Total volume = 52.9086.  Cell volumes OK.
    Mesh non-orthogonality Max: 50.94 average: 13.1419
    Non-orthogonality check OK.
 ***Error in face pyramids: 6 faces are incorrectly oriented.
  <<Writing 6 faces with incorrect orientation to set wrongOrientedFaces
    Max skewness = 2.81414 OK.
    Coupled point location match (average 0) OK.

Failed 1 mesh checks.

End

