/*---------------------------------------------------------------------------*\
| =========                 |                                                 |
| \\      /  F ield         | OpenFOAM: The Open Source CFD Toolbox           |
|  \\    /   O peration     | Version:  2312                                  |
|   \\  /    A nd           | Website:  www.openfoam.com                      |
|    \\/     M anipulation  |                                                 |
\*---------------------------------------------------------------------------*/
Build  : _e651d635-20240208 OPENFOAM=2312 patch=240220 version=2312
Arch   : "LSB;label=32;scalar=64"
Exec   : checkMesh
Date   : Aug 07 2024
Time   : 13:45:32
Host   : lizzi-Latitude-5330
PID    : 62280
I/O    : uncollated
Case   : /home/lizzi/Porous-model-paper/nondimensional/newInvestigation/runrh=0.2,numAx=4,numSec=10
nProcs : 1
trapFpe: Floating point exception trapping enabled (FOAM_SIGFPE).
fileModificationChecking : Monitoring run-time modified files using timeStampMaster (fileModificationSkew 5, maxFileModificationPolls 20)
allowSystemOperations : Allowing user-supplied system call operations

// * * * * * * * * * * * * * * * * * * * * * * * * * * * * * * * * * * * * * //
Create time

Create mesh for time = 0

Check mesh...

Time = 0

Mesh stats 
    points:           185582
    faces:            216878
    internal faces:   196273
    cells:            32209
    faces per cell:   12.8272
    boundary patches: 4
    point zones:      0
    face zones:       0
    cell zones:       1

Overall number of cells of each type:
    hexahedra:     53
    prisms:        0
    wedges:        0
    pyramids:      0
    tet wedges:    0
    tetrahedra:    0
    polyhedra:     32156
    Breakdown of polyhedra by number of faces:
        faces   number of cells
            6   1
            7   794
            8   2038
            9   3339
           10   4044
           11   3328
           12   2587
           13   2367
           14   2741
           15   2868
           16   2765
           17   2121
           18   1479
           19   838
           20   455
           21   204
           22   94
           23   24
           24   21
           25   8
           26   4
           27   20
           28   7
           29   2
           30   7

Checking topology...
    Boundary definition OK.
    Cell to face addressing OK.
    Point usage OK.
    Upper triangular ordering OK.
    Face vertices OK.
    Number of regions: 1 (OK).

Checking patch topology for multiply connected surfaces...
                   Patch    Faces   Points  Surface topology
                   walls    18895    35119  ok (non-closed singly connected)
                backWall      195      358  ok (non-closed singly connected)
                  outlet      195      358  ok (non-closed singly connected)
                   inlet     1320     2320  ok (non-closed singly connected)
                    ".*"    20605    37227      ok (closed singly connected)


Checking faceZone topology for multiply connected surfaces...
    No faceZones found.

Checking basic cellZone addressing...
                CellZone        Cells       Points       VolumeBoundingBox
                  fluid            0            0            0 (1e+150 1e+150 1e+150) (-1e+150 -1e+150 -1e+150)

Checking basic pointZone addressing...
    No pointZones found.

Checking geometry...
    Overall domain bounding box (-1.25 -1.25 0) (1.25 1.25 30)
    Mesh has 3 geometric (non-empty/wedge) directions (1 1 1)
    Mesh has 3 solution (non-empty) directions (1 1 1)
    Boundary openness (3.02299e-17 -1.38354e-17 -2.27013e-17) OK.
    Max cell openness = 2.27237e-16 OK.
    Max aspect ratio = 4.85559 OK.
    Minimum face area = 0.00010501. Maximum face area = 0.0300293.  Face area magnitudes OK.
    Min volume = 5.15142e-05. Max volume = 0.0103525.  Total volume = 55.0442.  Cell volumes OK.
    Mesh non-orthogonality Max: 66.0809 average: 13.3533
    Non-orthogonality check OK.
 ***Error in face pyramids: 131 faces are incorrectly oriented.
  <<Writing 131 faces with incorrect orientation to set wrongOrientedFaces
    Max skewness = 3.08317 OK.
    Coupled point location match (average 0) OK.

Failed 1 mesh checks.

End

