/*---------------------------------------------------------------------------*\
| =========                 |                                                 |
| \\      /  F ield         | OpenFOAM: The Open Source CFD Toolbox           |
|  \\    /   O peration     | Version:  2312                                  |
|   \\  /    A nd           | Website:  www.openfoam.com                      |
|    \\/     M anipulation  |                                                 |
\*---------------------------------------------------------------------------*/
Build  : _c39a0f64-20231220 OPENFOAM=2312 version=2312
Arch   : "LSB;label=32;scalar=64"
Exec   : checkMesh
Date   : Apr 08 2024
Time   : 12:06:33
Host   : lizzi-Latitude-5330
PID    : 202184
I/O    : uncollated
Case   : /home/lizzi/Shunt-Optimisation/HT2024/porousModelPaper/detailedComparison/runHoles=12,width=1.5,s=4
nProcs : 1
trapFpe: Floating point exception trapping enabled (FOAM_SIGFPE).
fileModificationChecking : Monitoring run-time modified files using timeStampMaster (fileModificationSkew 5, maxFileModificationPolls 20)
allowSystemOperations : Allowing user-supplied system call operations

// * * * * * * * * * * * * * * * * * * * * * * * * * * * * * * * * * * * * * //
Create time

Create mesh for time = 0

Check mesh...

Time = 0

Mesh stats 
    points:           2572031
    faces:            2999472
    internal faces:   2769617
    cells:            439622
    faces per cell:   13.1228
    boundary patches: 4
    point zones:      0
    face zones:       0
    cell zones:       1

Overall number of cells of each type:
    hexahedra:     141
    prisms:        0
    wedges:        0
    pyramids:      0
    tet wedges:    0
    tetrahedra:    0
    polyhedra:     439481
    Breakdown of polyhedra by number of faces:
        faces   number of cells
            6   15
            7   6819
            8   27775
            9   52158
           10   45787
           11   26367
           12   30263
           13   39506
           14   50576
           15   52390
           16   43705
           17   29687
           18   16317
           19   7511
           20   3208
           21   1181
           22   372
           23   116
           24   35
           25   98
           26   277
           27   413
           28   1005
           29   1308
           30   1193
           31   439
           32   217
           33   118
           34   188
           35   228
           36   125
           37   32
           39   32
           40   20

Checking topology...
    Boundary definition OK.
    Cell to face addressing OK.
    Point usage OK.
    Upper triangular ordering OK.
    Face vertices OK.
    Number of regions: 1 (OK).

Checking patch topology for multiply connected surfaces...
                   Patch    Faces   Points  Surface topology
                   walls   212995   391263  ok (non-closed singly connected)
                backWall      366      681  ok (non-closed singly connected)
                  outlet      366      681  ok (non-closed singly connected)
                   inlet    16128    28800  ok (non-closed singly connected)
                    ".*"   229855   409693      ok (closed singly connected)


Checking faceZone topology for multiply connected surfaces...
    No faceZones found.

Checking basic cellZone addressing...
                CellZone        Cells       Points       VolumeBoundingBox
                  fluid            0            0            0 (1e+150 1e+150 1e+150) (-1e+150 -1e+150 -1e+150)

Checking basic pointZone addressing...
    No pointZones found.

Checking geometry...
    Overall domain bounding box (-1.25 -1.25 0) (1.25 1.25 30)
    Mesh has 3 geometric (non-empty/wedge) directions (1 1 1)
    Mesh has 3 solution (non-empty) directions (1 1 1)
    Boundary openness (2.57377e-16 -2.90973e-17 -8.73261e-18) OK.
    Max cell openness = 2.64963e-16 OK.
    Max aspect ratio = 4.66235 OK.
    Minimum face area = 5.92131e-06. Maximum face area = 0.0176086.  Face area magnitudes OK.
    Min volume = 9.07237e-07. Max volume = 0.0049731.  Total volume = 55.0048.  Cell volumes OK.
    Mesh non-orthogonality Max: 65.2051 average: 14.1567
    Non-orthogonality check OK.
 ***Error in face pyramids: 2662 faces are incorrectly oriented.
  <<Writing 2662 faces with incorrect orientation to set wrongOrientedFaces
    Max skewness = 3.04671 OK.
    Coupled point location match (average 0) OK.

Failed 1 mesh checks.

End

